TEST_N_VLN_elem.Txt

NODE-GROUND VOLTAGES BY CIRCUIT ELEMENT

Power Delivery Elements

Bus  (node ref)  Phase    Magnitude, kV (pu)    Angle

ELEMENT = "Vsource.SOURCE"
100   (  1)    1           6.3504 (  0.9999) /_    0.0
100   (  2)    2           6.3504 (  0.9999) /_ -120.0
100   (  3)    3           6.3504 (  0.9999) /_  120.0
------------
100   (  0)    0                0 (       0) /_    0.0
100   (  0)    0                0 (       0) /_    0.0
100   (  0)    0                0 (       0) /_    0.0

ELEMENT = "Line.LINEA-B"
100   (  1)    1           6.3504 (  0.9999) /_    0.0
100   (  2)    2           6.3504 (  0.9999) /_ -120.0
100   (  3)    3           6.3504 (  0.9999) /_  120.0
------------
200   (  4)    1           6.3234 (  0.9957) /_    0.0
200   (  5)    2           6.3234 (  0.9957) /_ -120.0
200   (  6)    3           6.3234 (  0.9957) /_  120.0

= = = = = = = = = = = = = = = = = = =  = = = = = = = = = = =  = =

Power Conversion Elements

Bus  (node ref)  Phase    Magnitude, kV (pu)    Angle

ELEMENT = "Load.L1"
200   (  4)    1           6.3234 (  0.9957) /_    0.0
200   (  5)    2           6.3234 (  0.9957) /_ -120.0
200   (  6)    3           6.3234 (  0.9957) /_  120.0
200   (  0)    0                0 (       0) /_    0.0

